<edges>
	<edge id="01to00" from="01" to="00" type="junction_out"/>
	<edge id="08to15" from="08" to="15" type="junction_out"/>
	<edge id="06to19" from="06" to="19" type="junction_out"/>
	<edge id="12to02" from="12" to="02" type="junction_out"/>
	<edge id="07to06" from="07" to="06" type="junction_out"/>
	<edge id="00to10" from="00" to="10" type="junction_out"/>
	<edge id="00to01" from="00" to="01" type="junction_out"/>
	<edge id="05to04" from="05" to="04" type="junction_out"/>
	<edge id="02to12" from="02" to="12" type="junction_out"/>
	<edge id="07to17" from="07" to="17" type="junction_out"/>
	<edge id="11to01" from="11" to="01" type="junction_out"/>
	<edge id="04to07" from="04" to="07" type="junction_out"/>
	<edge id="10to00" from="10" to="00" type="junction_out"/>
	<edge id="05to02" from="05" to="02" type="junction_out"/>
	<edge id="06to07" from="06" to="07" type="junction_out"/>
	<edge id="08to05" from="08" to="05" type="junction_out"/>
	<edge id="04to03" from="04" to="03" type="junction_out"/>
	<edge id="1ato03" from="1a" to="03" type="junction_out"/>
	<edge id="01to11" from="01" to="11" type="junction_out"/>
	<edge id="03to06" from="03" to="06" type="junction_out"/>
	<edge id="16to08" from="16" to="08" type="junction_out"/>
	<edge id="07to04" from="07" to="04" type="junction_out"/>
	<edge id="19to06" from="19" to="06" type="junction_out"/>
	<edge id="15to08" from="15" to="08" type="junction_out"/>
	<edge id="05to08" from="05" to="08" type="junction_out"/>
	<edge id="01to02" from="01" to="02" type="junction_out"/>
	<edge id="02to05" from="02" to="05" type="junction_out"/>
	<edge id="1bto00" from="1b" to="00" type="junction_out"/>
	<edge id="05to14" from="05" to="14" type="junction_out"/>
	<edge id="03to04" from="03" to="04" type="junction_out"/>
	<edge id="00to03" from="00" to="03" type="junction_out"/>
	<edge id="18to06" from="18" to="06" type="junction_out"/>
	<edge id="04to05" from="04" to="05" type="junction_out"/>
	<edge id="02to01" from="02" to="01" type="junction_out"/>
	<edge id="17to07" from="17" to="07" type="junction_out"/>
	<edge id="03to00" from="03" to="00" type="junction_out"/>
	<edge id="08to07" from="08" to="07" type="junction_out"/>
	<edge id="00to1b" from="00" to="1b" type="junction_out"/>
	<edge id="08to16" from="08" to="16" type="junction_out"/>
	<edge id="03to1a" from="03" to="1a" type="junction_out"/>
	<edge id="14to05" from="14" to="05" type="junction_out"/>
	<edge id="04to01" from="04" to="01" type="junction_out"/>
	<edge id="13to02" from="13" to="02" type="junction_out"/>
	<edge id="07to08" from="07" to="08" type="junction_out"/>
	<edge id="01to04" from="01" to="04" type="junction_out"/>
	<edge id="06to03" from="06" to="03" type="junction_out"/>
	<edge id="02to13" from="02" to="13" type="junction_out"/>
	<edge id="06to18" from="06" to="18" type="junction_out"/>
</edges>