<?xml version="1.0" encoding="UTF-8"?>

<!-- generated on 08/05/19 00:59:56 by Eclipse SUMO netconvert Version 1.2.0
<configuration xmlns:xsi="http://www.w3.org/2001/XMLSchema-instance" xsi:noNamespaceSchemaLocation="http://sumo.dlr.de/xsd/netconvertConfiguration.xsd">

    <input>
        <node-files value="sim.nod.xml"/>
        <edge-files value="sim.edg.xml"/>
        <connection-files value="sim.con.xml"/>
        <type-files value="sim.typ.xml"/>
    </input>

    <output>
        <output-file value="sim.net.xml"/>
    </output>

    <junctions>
        <no-turnarounds.tls value="true"/>
    </junctions>

    <report>
        <verbose value="true"/>
    </report>

</configuration>
-->

<net version="1.1" junctionCornerDetail="5" limitTurnSpeed="5.50" xmlns:xsi="http://www.w3.org/2001/XMLSchema-instance" xsi:noNamespaceSchemaLocation="http://sumo.dlr.de/xsd/net_file.xsd">

    <location netOffset="400.00,400.00" convBoundary="0.00,0.00,800.00,800.00" origBoundary="-400.00,-400.00,400.00,400.00" projParameter="!"/>

    <type id="junction_in" priority="78" numLanes="2" speed="19.44"/>
    <type id="junction_out" priority="46" numLanes="2" speed="11.11"/>

    <edge id=":00_0" function="internal">
        <lane id=":00_0_0" index="0" speed="6.51" length="9.03" shape="195.20,610.40 194.85,607.95 193.80,606.20 192.05,605.15 189.60,604.80"/>
    </edge>
    <edge id=":00_1" function="internal">
        <lane id=":00_1_0" index="0" speed="11.11" length="20.80" shape="195.20,610.40 195.20,589.60"/>
    </edge>
    <edge id=":00_2" function="internal">
        <lane id=":00_2_0" index="0" speed="9.26" length="11.78" shape="198.40,610.40 199.15,605.15 201.40,601.40 203.20,600.32"/>
    </edge>
    <edge id=":00_12" function="internal">
        <lane id=":00_12_0" index="0" speed="9.26" length="7.58" shape="203.20,600.32 205.15,599.15 210.40,598.40"/>
    </edge>
    <edge id=":00_3" function="internal">
        <lane id=":00_3_0" index="0" speed="6.51" length="9.03" shape="210.40,604.80 207.95,605.15 206.20,606.20 205.15,607.95 204.80,610.40"/>
    </edge>
    <edge id=":00_4" function="internal">
        <lane id=":00_4_0" index="0" speed="11.11" length="20.80" shape="210.40,604.80 189.60,604.80"/>
    </edge>
    <edge id=":00_5" function="internal">
        <lane id=":00_5_0" index="0" speed="9.26" length="11.78" shape="210.40,601.60 205.15,600.85 201.40,598.60 200.32,596.80"/>
    </edge>
    <edge id=":00_13" function="internal">
        <lane id=":00_13_0" index="0" speed="9.26" length="7.58" shape="200.32,596.80 199.15,594.85 198.40,589.60"/>
    </edge>
    <edge id=":00_6" function="internal">
        <lane id=":00_6_0" index="0" speed="6.51" length="9.03" shape="204.80,589.60 205.15,592.05 206.20,593.80 207.95,594.85 210.40,595.20"/>
    </edge>
    <edge id=":00_7" function="internal">
        <lane id=":00_7_0" index="0" speed="11.11" length="20.80" shape="204.80,589.60 204.80,610.40"/>
    </edge>
    <edge id=":00_8" function="internal">
        <lane id=":00_8_0" index="0" speed="9.26" length="11.78" shape="201.60,589.60 200.85,594.85 198.60,598.60 196.80,599.68"/>
    </edge>
    <edge id=":00_14" function="internal">
        <lane id=":00_14_0" index="0" speed="9.26" length="7.58" shape="196.80,599.68 194.85,600.85 189.60,601.60"/>
    </edge>
    <edge id=":00_9" function="internal">
        <lane id=":00_9_0" index="0" speed="6.51" length="9.03" shape="189.60,595.20 192.05,594.85 193.80,593.80 194.85,592.05 195.20,589.60"/>
    </edge>
    <edge id=":00_10" function="internal">
        <lane id=":00_10_0" index="0" speed="11.11" length="20.80" shape="189.60,595.20 210.40,595.20"/>
    </edge>
    <edge id=":00_11" function="internal">
        <lane id=":00_11_0" index="0" speed="9.26" length="11.78" shape="189.60,598.40 194.85,599.15 198.60,601.40 199.68,603.20"/>
    </edge>
    <edge id=":00_15" function="internal">
        <lane id=":00_15_0" index="0" speed="9.26" length="7.58" shape="199.68,603.20 200.85,605.15 201.60,610.40"/>
    </edge>
    <edge id=":01_0" function="internal">
        <lane id=":01_0_0" index="0" speed="6.51" length="9.03" shape="395.20,610.40 394.85,607.95 393.80,606.20 392.05,605.15 389.60,604.80"/>
    </edge>
    <edge id=":01_1" function="internal">
        <lane id=":01_1_0" index="0" speed="11.11" length="20.80" shape="395.20,610.40 395.20,589.60"/>
    </edge>
    <edge id=":01_2" function="internal">
        <lane id=":01_2_0" index="0" speed="9.26" length="11.78" shape="398.40,610.40 399.15,605.15 401.40,601.40 403.20,600.32"/>
    </edge>
    <edge id=":01_12" function="internal">
        <lane id=":01_12_0" index="0" speed="9.26" length="7.58" shape="403.20,600.32 405.15,599.15 410.40,598.40"/>
    </edge>
    <edge id=":01_3" function="internal">
        <lane id=":01_3_0" index="0" speed="6.51" length="9.03" shape="410.40,604.80 407.95,605.15 406.20,606.20 405.15,607.95 404.80,610.40"/>
    </edge>
    <edge id=":01_4" function="internal">
        <lane id=":01_4_0" index="0" speed="11.11" length="20.80" shape="410.40,604.80 389.60,604.80"/>
    </edge>
    <edge id=":01_5" function="internal">
        <lane id=":01_5_0" index="0" speed="9.26" length="11.78" shape="410.40,601.60 405.15,600.85 401.40,598.60 400.32,596.80"/>
    </edge>
    <edge id=":01_13" function="internal">
        <lane id=":01_13_0" index="0" speed="9.26" length="7.58" shape="400.32,596.80 399.15,594.85 398.40,589.60"/>
    </edge>
    <edge id=":01_6" function="internal">
        <lane id=":01_6_0" index="0" speed="6.51" length="9.03" shape="404.80,589.60 405.15,592.05 406.20,593.80 407.95,594.85 410.40,595.20"/>
    </edge>
    <edge id=":01_7" function="internal">
        <lane id=":01_7_0" index="0" speed="11.11" length="20.80" shape="404.80,589.60 404.80,610.40"/>
    </edge>
    <edge id=":01_8" function="internal">
        <lane id=":01_8_0" index="0" speed="9.26" length="11.78" shape="401.60,589.60 400.85,594.85 398.60,598.60 396.80,599.68"/>
    </edge>
    <edge id=":01_14" function="internal">
        <lane id=":01_14_0" index="0" speed="9.26" length="7.58" shape="396.80,599.68 394.85,600.85 389.60,601.60"/>
    </edge>
    <edge id=":01_9" function="internal">
        <lane id=":01_9_0" index="0" speed="6.51" length="9.03" shape="389.60,595.20 392.05,594.85 393.80,593.80 394.85,592.05 395.20,589.60"/>
    </edge>
    <edge id=":01_10" function="internal">
        <lane id=":01_10_0" index="0" speed="11.11" length="20.80" shape="389.60,595.20 410.40,595.20"/>
    </edge>
    <edge id=":01_11" function="internal">
        <lane id=":01_11_0" index="0" speed="9.26" length="11.78" shape="389.60,598.40 394.85,599.15 398.60,601.40 399.68,603.20"/>
    </edge>
    <edge id=":01_15" function="internal">
        <lane id=":01_15_0" index="0" speed="9.26" length="7.58" shape="399.68,603.20 400.85,605.15 401.60,610.40"/>
    </edge>
    <edge id=":02_0" function="internal">
        <lane id=":02_0_0" index="0" speed="6.51" length="9.03" shape="595.20,610.40 594.85,607.95 593.80,606.20 592.05,605.15 589.60,604.80"/>
    </edge>
    <edge id=":02_1" function="internal">
        <lane id=":02_1_0" index="0" speed="11.11" length="20.80" shape="595.20,610.40 595.20,589.60"/>
    </edge>
    <edge id=":02_2" function="internal">
        <lane id=":02_2_0" index="0" speed="9.26" length="11.78" shape="598.40,610.40 599.15,605.15 601.40,601.40 603.20,600.32"/>
    </edge>
    <edge id=":02_12" function="internal">
        <lane id=":02_12_0" index="0" speed="9.26" length="7.58" shape="603.20,600.32 605.15,599.15 610.40,598.40"/>
    </edge>
    <edge id=":02_3" function="internal">
        <lane id=":02_3_0" index="0" speed="6.51" length="9.03" shape="610.40,604.80 607.95,605.15 606.20,606.20 605.15,607.95 604.80,610.40"/>
    </edge>
    <edge id=":02_4" function="internal">
        <lane id=":02_4_0" index="0" speed="11.11" length="20.80" shape="610.40,604.80 589.60,604.80"/>
    </edge>
    <edge id=":02_5" function="internal">
        <lane id=":02_5_0" index="0" speed="9.26" length="11.78" shape="610.40,601.60 605.15,600.85 601.40,598.60 600.32,596.80"/>
    </edge>
    <edge id=":02_13" function="internal">
        <lane id=":02_13_0" index="0" speed="9.26" length="7.58" shape="600.32,596.80 599.15,594.85 598.40,589.60"/>
    </edge>
    <edge id=":02_6" function="internal">
        <lane id=":02_6_0" index="0" speed="6.51" length="9.03" shape="604.80,589.60 605.15,592.05 606.20,593.80 607.95,594.85 610.40,595.20"/>
    </edge>
    <edge id=":02_7" function="internal">
        <lane id=":02_7_0" index="0" speed="11.11" length="20.80" shape="604.80,589.60 604.80,610.40"/>
    </edge>
    <edge id=":02_8" function="internal">
        <lane id=":02_8_0" index="0" speed="9.26" length="11.78" shape="601.60,589.60 600.85,594.85 598.60,598.60 596.80,599.68"/>
    </edge>
    <edge id=":02_14" function="internal">
        <lane id=":02_14_0" index="0" speed="9.26" length="7.58" shape="596.80,599.68 594.85,600.85 589.60,601.60"/>
    </edge>
    <edge id=":02_9" function="internal">
        <lane id=":02_9_0" index="0" speed="6.51" length="9.03" shape="589.60,595.20 592.05,594.85 593.80,593.80 594.85,592.05 595.20,589.60"/>
    </edge>
    <edge id=":02_10" function="internal">
        <lane id=":02_10_0" index="0" speed="11.11" length="20.80" shape="589.60,595.20 610.40,595.20"/>
    </edge>
    <edge id=":02_11" function="internal">
        <lane id=":02_11_0" index="0" speed="9.26" length="11.78" shape="589.60,598.40 594.85,599.15 598.60,601.40 599.68,603.20"/>
    </edge>
    <edge id=":02_15" function="internal">
        <lane id=":02_15_0" index="0" speed="9.26" length="7.58" shape="599.68,603.20 600.85,605.15 601.60,610.40"/>
    </edge>
    <edge id=":03_0" function="internal">
        <lane id=":03_0_0" index="0" speed="6.51" length="9.03" shape="195.20,410.40 194.85,407.95 193.80,406.20 192.05,405.15 189.60,404.80"/>
    </edge>
    <edge id=":03_1" function="internal">
        <lane id=":03_1_0" index="0" speed="11.11" length="20.80" shape="195.20,410.40 195.20,389.60"/>
    </edge>
    <edge id=":03_2" function="internal">
        <lane id=":03_2_0" index="0" speed="9.26" length="11.78" shape="198.40,410.40 199.15,405.15 201.40,401.40 203.20,400.32"/>
    </edge>
    <edge id=":03_12" function="internal">
        <lane id=":03_12_0" index="0" speed="9.26" length="7.58" shape="203.20,400.32 205.15,399.15 210.40,398.40"/>
    </edge>
    <edge id=":03_3" function="internal">
        <lane id=":03_3_0" index="0" speed="6.51" length="9.03" shape="210.40,404.80 207.95,405.15 206.20,406.20 205.15,407.95 204.80,410.40"/>
    </edge>
    <edge id=":03_4" function="internal">
        <lane id=":03_4_0" index="0" speed="11.11" length="20.80" shape="210.40,404.80 189.60,404.80"/>
    </edge>
    <edge id=":03_5" function="internal">
        <lane id=":03_5_0" index="0" speed="9.26" length="11.78" shape="210.40,401.60 205.15,400.85 201.40,398.60 200.32,396.80"/>
    </edge>
    <edge id=":03_13" function="internal">
        <lane id=":03_13_0" index="0" speed="9.26" length="7.58" shape="200.32,396.80 199.15,394.85 198.40,389.60"/>
    </edge>
    <edge id=":03_6" function="internal">
        <lane id=":03_6_0" index="0" speed="6.51" length="9.03" shape="204.80,389.60 205.15,392.05 206.20,393.80 207.95,394.85 210.40,395.20"/>
    </edge>
    <edge id=":03_7" function="internal">
        <lane id=":03_7_0" index="0" speed="11.11" length="20.80" shape="204.80,389.60 204.80,410.40"/>
    </edge>
    <edge id=":03_8" function="internal">
        <lane id=":03_8_0" index="0" speed="9.26" length="11.78" shape="201.60,389.60 200.85,394.85 198.60,398.60 196.80,399.68"/>
    </edge>
    <edge id=":03_14" function="internal">
        <lane id=":03_14_0" index="0" speed="9.26" length="7.58" shape="196.80,399.68 194.85,400.85 189.60,401.60"/>
    </edge>
    <edge id=":03_9" function="internal">
        <lane id=":03_9_0" index="0" speed="6.51" length="9.03" shape="189.60,395.20 192.05,394.85 193.80,393.80 194.85,392.05 195.20,389.60"/>
    </edge>
    <edge id=":03_10" function="internal">
        <lane id=":03_10_0" index="0" speed="11.11" length="20.80" shape="189.60,395.20 210.40,395.20"/>
    </edge>
    <edge id=":03_11" function="internal">
        <lane id=":03_11_0" index="0" speed="9.26" length="11.78" shape="189.60,398.40 194.85,399.15 198.60,401.40 199.68,403.20"/>
    </edge>
    <edge id=":03_15" function="internal">
        <lane id=":03_15_0" index="0" speed="9.26" length="7.58" shape="199.68,403.20 200.85,405.15 201.60,410.40"/>
    </edge>
    <edge id=":04_0" function="internal">
        <lane id=":04_0_0" index="0" speed="6.51" length="9.03" shape="395.20,410.40 394.85,407.95 393.80,406.20 392.05,405.15 389.60,404.80"/>
    </edge>
    <edge id=":04_1" function="internal">
        <lane id=":04_1_0" index="0" speed="11.11" length="20.80" shape="395.20,410.40 395.20,389.60"/>
    </edge>
    <edge id=":04_2" function="internal">
        <lane id=":04_2_0" index="0" speed="9.26" length="11.78" shape="398.40,410.40 399.15,405.15 401.40,401.40 403.20,400.32"/>
    </edge>
    <edge id=":04_12" function="internal">
        <lane id=":04_12_0" index="0" speed="9.26" length="7.58" shape="403.20,400.32 405.15,399.15 410.40,398.40"/>
    </edge>
    <edge id=":04_3" function="internal">
        <lane id=":04_3_0" index="0" speed="6.51" length="9.03" shape="410.40,404.80 407.95,405.15 406.20,406.20 405.15,407.95 404.80,410.40"/>
    </edge>
    <edge id=":04_4" function="internal">
        <lane id=":04_4_0" index="0" speed="11.11" length="20.80" shape="410.40,404.80 389.60,404.80"/>
    </edge>
    <edge id=":04_5" function="internal">
        <lane id=":04_5_0" index="0" speed="9.26" length="11.78" shape="410.40,401.60 405.15,400.85 401.40,398.60 400.32,396.80"/>
    </edge>
    <edge id=":04_13" function="internal">
        <lane id=":04_13_0" index="0" speed="9.26" length="7.58" shape="400.32,396.80 399.15,394.85 398.40,389.60"/>
    </edge>
    <edge id=":04_6" function="internal">
        <lane id=":04_6_0" index="0" speed="6.51" length="9.03" shape="404.80,389.60 405.15,392.05 406.20,393.80 407.95,394.85 410.40,395.20"/>
    </edge>
    <edge id=":04_7" function="internal">
        <lane id=":04_7_0" index="0" speed="11.11" length="20.80" shape="404.80,389.60 404.80,410.40"/>
    </edge>
    <edge id=":04_8" function="internal">
        <lane id=":04_8_0" index="0" speed="9.26" length="11.78" shape="401.60,389.60 400.85,394.85 398.60,398.60 396.80,399.68"/>
    </edge>
    <edge id=":04_14" function="internal">
        <lane id=":04_14_0" index="0" speed="9.26" length="7.58" shape="396.80,399.68 394.85,400.85 389.60,401.60"/>
    </edge>
    <edge id=":04_9" function="internal">
        <lane id=":04_9_0" index="0" speed="6.51" length="9.03" shape="389.60,395.20 392.05,394.85 393.80,393.80 394.85,392.05 395.20,389.60"/>
    </edge>
    <edge id=":04_10" function="internal">
        <lane id=":04_10_0" index="0" speed="11.11" length="20.80" shape="389.60,395.20 410.40,395.20"/>
    </edge>
    <edge id=":04_11" function="internal">
        <lane id=":04_11_0" index="0" speed="9.26" length="11.78" shape="389.60,398.40 394.85,399.15 398.60,401.40 399.68,403.20"/>
    </edge>
    <edge id=":04_15" function="internal">
        <lane id=":04_15_0" index="0" speed="9.26" length="7.58" shape="399.68,403.20 400.85,405.15 401.60,410.40"/>
    </edge>
    <edge id=":05_0" function="internal">
        <lane id=":05_0_0" index="0" speed="6.51" length="9.03" shape="595.20,410.40 594.85,407.95 593.80,406.20 592.05,405.15 589.60,404.80"/>
    </edge>
    <edge id=":05_1" function="internal">
        <lane id=":05_1_0" index="0" speed="11.11" length="20.80" shape="595.20,410.40 595.20,389.60"/>
    </edge>
    <edge id=":05_2" function="internal">
        <lane id=":05_2_0" index="0" speed="9.26" length="11.78" shape="598.40,410.40 599.15,405.15 601.40,401.40 603.20,400.32"/>
    </edge>
    <edge id=":05_12" function="internal">
        <lane id=":05_12_0" index="0" speed="9.26" length="7.58" shape="603.20,400.32 605.15,399.15 610.40,398.40"/>
    </edge>
    <edge id=":05_3" function="internal">
        <lane id=":05_3_0" index="0" speed="6.51" length="9.03" shape="610.40,404.80 607.95,405.15 606.20,406.20 605.15,407.95 604.80,410.40"/>
    </edge>
    <edge id=":05_4" function="internal">
        <lane id=":05_4_0" index="0" speed="11.11" length="20.80" shape="610.40,404.80 589.60,404.80"/>
    </edge>
    <edge id=":05_5" function="internal">
        <lane id=":05_5_0" index="0" speed="9.26" length="11.78" shape="610.40,401.60 605.15,400.85 601.40,398.60 600.32,396.80"/>
    </edge>
    <edge id=":05_13" function="internal">
        <lane id=":05_13_0" index="0" speed="9.26" length="7.58" shape="600.32,396.80 599.15,394.85 598.40,389.60"/>
    </edge>
    <edge id=":05_6" function="internal">
        <lane id=":05_6_0" index="0" speed="6.51" length="9.03" shape="604.80,389.60 605.15,392.05 606.20,393.80 607.95,394.85 610.40,395.20"/>
    </edge>
    <edge id=":05_7" function="internal">
        <lane id=":05_7_0" index="0" speed="11.11" length="20.80" shape="604.80,389.60 604.80,410.40"/>
    </edge>
    <edge id=":05_8" function="internal">
        <lane id=":05_8_0" index="0" speed="9.26" length="11.78" shape="601.60,389.60 600.85,394.85 598.60,398.60 596.80,399.68"/>
    </edge>
    <edge id=":05_14" function="internal">
        <lane id=":05_14_0" index="0" speed="9.26" length="7.58" shape="596.80,399.68 594.85,400.85 589.60,401.60"/>
    </edge>
    <edge id=":05_9" function="internal">
        <lane id=":05_9_0" index="0" speed="6.51" length="9.03" shape="589.60,395.20 592.05,394.85 593.80,393.80 594.85,392.05 595.20,389.60"/>
    </edge>
    <edge id=":05_10" function="internal">
        <lane id=":05_10_0" index="0" speed="11.11" length="20.80" shape="589.60,395.20 610.40,395.20"/>
    </edge>
    <edge id=":05_11" function="internal">
        <lane id=":05_11_0" index="0" speed="9.26" length="11.78" shape="589.60,398.40 594.85,399.15 598.60,401.40 599.68,403.20"/>
    </edge>
    <edge id=":05_15" function="internal">
        <lane id=":05_15_0" index="0" speed="9.26" length="7.58" shape="599.68,403.20 600.85,405.15 601.60,410.40"/>
    </edge>
    <edge id=":06_0" function="internal">
        <lane id=":06_0_0" index="0" speed="6.51" length="9.03" shape="195.20,210.40 194.85,207.95 193.80,206.20 192.05,205.15 189.60,204.80"/>
    </edge>
    <edge id=":06_1" function="internal">
        <lane id=":06_1_0" index="0" speed="11.11" length="20.80" shape="195.20,210.40 195.20,189.60"/>
    </edge>
    <edge id=":06_2" function="internal">
        <lane id=":06_2_0" index="0" speed="9.26" length="11.78" shape="198.40,210.40 199.15,205.15 201.40,201.40 203.20,200.32"/>
    </edge>
    <edge id=":06_12" function="internal">
        <lane id=":06_12_0" index="0" speed="9.26" length="7.58" shape="203.20,200.32 205.15,199.15 210.40,198.40"/>
    </edge>
    <edge id=":06_3" function="internal">
        <lane id=":06_3_0" index="0" speed="6.51" length="9.03" shape="210.40,204.80 207.95,205.15 206.20,206.20 205.15,207.95 204.80,210.40"/>
    </edge>
    <edge id=":06_4" function="internal">
        <lane id=":06_4_0" index="0" speed="11.11" length="20.80" shape="210.40,204.80 189.60,204.80"/>
    </edge>
    <edge id=":06_5" function="internal">
        <lane id=":06_5_0" index="0" speed="9.26" length="11.78" shape="210.40,201.60 205.15,200.85 201.40,198.60 200.32,196.80"/>
    </edge>
    <edge id=":06_13" function="internal">
        <lane id=":06_13_0" index="0" speed="9.26" length="7.58" shape="200.32,196.80 199.15,194.85 198.40,189.60"/>
    </edge>
    <edge id=":06_6" function="internal">
        <lane id=":06_6_0" index="0" speed="6.51" length="9.03" shape="204.80,189.60 205.15,192.05 206.20,193.80 207.95,194.85 210.40,195.20"/>
    </edge>
    <edge id=":06_7" function="internal">
        <lane id=":06_7_0" index="0" speed="11.11" length="20.80" shape="204.80,189.60 204.80,210.40"/>
    </edge>
    <edge id=":06_8" function="internal">
        <lane id=":06_8_0" index="0" speed="9.26" length="11.78" shape="201.60,189.60 200.85,194.85 198.60,198.60 196.80,199.68"/>
    </edge>
    <edge id=":06_14" function="internal">
        <lane id=":06_14_0" index="0" speed="9.26" length="7.58" shape="196.80,199.68 194.85,200.85 189.60,201.60"/>
    </edge>
    <edge id=":06_9" function="internal">
        <lane id=":06_9_0" index="0" speed="6.51" length="9.03" shape="189.60,195.20 192.05,194.85 193.80,193.80 194.85,192.05 195.20,189.60"/>
    </edge>
    <edge id=":06_10" function="internal">
        <lane id=":06_10_0" index="0" speed="11.11" length="20.80" shape="189.60,195.20 210.40,195.20"/>
    </edge>
    <edge id=":06_11" function="internal">
        <lane id=":06_11_0" index="0" speed="9.26" length="11.78" shape="189.60,198.40 194.85,199.15 198.60,201.40 199.68,203.20"/>
    </edge>
    <edge id=":06_15" function="internal">
        <lane id=":06_15_0" index="0" speed="9.26" length="7.58" shape="199.68,203.20 200.85,205.15 201.60,210.40"/>
    </edge>
    <edge id=":07_0" function="internal">
        <lane id=":07_0_0" index="0" speed="6.51" length="9.03" shape="395.20,210.40 394.85,207.95 393.80,206.20 392.05,205.15 389.60,204.80"/>
    </edge>
    <edge id=":07_1" function="internal">
        <lane id=":07_1_0" index="0" speed="11.11" length="20.80" shape="395.20,210.40 395.20,189.60"/>
    </edge>
    <edge id=":07_2" function="internal">
        <lane id=":07_2_0" index="0" speed="9.26" length="11.78" shape="398.40,210.40 399.15,205.15 401.40,201.40 403.20,200.32"/>
    </edge>
    <edge id=":07_12" function="internal">
        <lane id=":07_12_0" index="0" speed="9.26" length="7.58" shape="403.20,200.32 405.15,199.15 410.40,198.40"/>
    </edge>
    <edge id=":07_3" function="internal">
        <lane id=":07_3_0" index="0" speed="6.51" length="9.03" shape="410.40,204.80 407.95,205.15 406.20,206.20 405.15,207.95 404.80,210.40"/>
    </edge>
    <edge id=":07_4" function="internal">
        <lane id=":07_4_0" index="0" speed="11.11" length="20.80" shape="410.40,204.80 389.60,204.80"/>
    </edge>
    <edge id=":07_5" function="internal">
        <lane id=":07_5_0" index="0" speed="9.26" length="11.78" shape="410.40,201.60 405.15,200.85 401.40,198.60 400.32,196.80"/>
    </edge>
    <edge id=":07_13" function="internal">
        <lane id=":07_13_0" index="0" speed="9.26" length="7.58" shape="400.32,196.80 399.15,194.85 398.40,189.60"/>
    </edge>
    <edge id=":07_6" function="internal">
        <lane id=":07_6_0" index="0" speed="6.51" length="9.03" shape="404.80,189.60 405.15,192.05 406.20,193.80 407.95,194.85 410.40,195.20"/>
    </edge>
    <edge id=":07_7" function="internal">
        <lane id=":07_7_0" index="0" speed="11.11" length="20.80" shape="404.80,189.60 404.80,210.40"/>
    </edge>
    <edge id=":07_8" function="internal">
        <lane id=":07_8_0" index="0" speed="9.26" length="11.78" shape="401.60,189.60 400.85,194.85 398.60,198.60 396.80,199.68"/>
    </edge>
    <edge id=":07_14" function="internal">
        <lane id=":07_14_0" index="0" speed="9.26" length="7.58" shape="396.80,199.68 394.85,200.85 389.60,201.60"/>
    </edge>
    <edge id=":07_9" function="internal">
        <lane id=":07_9_0" index="0" speed="6.51" length="9.03" shape="389.60,195.20 392.05,194.85 393.80,193.80 394.85,192.05 395.20,189.60"/>
    </edge>
    <edge id=":07_10" function="internal">
        <lane id=":07_10_0" index="0" speed="11.11" length="20.80" shape="389.60,195.20 410.40,195.20"/>
    </edge>
    <edge id=":07_11" function="internal">
        <lane id=":07_11_0" index="0" speed="9.26" length="11.78" shape="389.60,198.40 394.85,199.15 398.60,201.40 399.68,203.20"/>
    </edge>
    <edge id=":07_15" function="internal">
        <lane id=":07_15_0" index="0" speed="9.26" length="7.58" shape="399.68,203.20 400.85,205.15 401.60,210.40"/>
    </edge>
    <edge id=":08_0" function="internal">
        <lane id=":08_0_0" index="0" speed="6.51" length="9.03" shape="595.20,210.40 594.85,207.95 593.80,206.20 592.05,205.15 589.60,204.80"/>
    </edge>
    <edge id=":08_1" function="internal">
        <lane id=":08_1_0" index="0" speed="11.11" length="20.80" shape="595.20,210.40 595.20,189.60"/>
    </edge>
    <edge id=":08_2" function="internal">
        <lane id=":08_2_0" index="0" speed="9.26" length="11.78" shape="598.40,210.40 599.15,205.15 601.40,201.40 603.20,200.32"/>
    </edge>
    <edge id=":08_12" function="internal">
        <lane id=":08_12_0" index="0" speed="9.26" length="7.58" shape="603.20,200.32 605.15,199.15 610.40,198.40"/>
    </edge>
    <edge id=":08_3" function="internal">
        <lane id=":08_3_0" index="0" speed="6.51" length="9.03" shape="610.40,204.80 607.95,205.15 606.20,206.20 605.15,207.95 604.80,210.40"/>
    </edge>
    <edge id=":08_4" function="internal">
        <lane id=":08_4_0" index="0" speed="11.11" length="20.80" shape="610.40,204.80 589.60,204.80"/>
    </edge>
    <edge id=":08_5" function="internal">
        <lane id=":08_5_0" index="0" speed="9.26" length="11.78" shape="610.40,201.60 605.15,200.85 601.40,198.60 600.32,196.80"/>
    </edge>
    <edge id=":08_13" function="internal">
        <lane id=":08_13_0" index="0" speed="9.26" length="7.58" shape="600.32,196.80 599.15,194.85 598.40,189.60"/>
    </edge>
    <edge id=":08_6" function="internal">
        <lane id=":08_6_0" index="0" speed="6.51" length="9.03" shape="604.80,189.60 605.15,192.05 606.20,193.80 607.95,194.85 610.40,195.20"/>
    </edge>
    <edge id=":08_7" function="internal">
        <lane id=":08_7_0" index="0" speed="11.11" length="20.80" shape="604.80,189.60 604.80,210.40"/>
    </edge>
    <edge id=":08_8" function="internal">
        <lane id=":08_8_0" index="0" speed="9.26" length="11.78" shape="601.60,189.60 600.85,194.85 598.60,198.60 596.80,199.68"/>
    </edge>
    <edge id=":08_14" function="internal">
        <lane id=":08_14_0" index="0" speed="9.26" length="7.58" shape="596.80,199.68 594.85,200.85 589.60,201.60"/>
    </edge>
    <edge id=":08_9" function="internal">
        <lane id=":08_9_0" index="0" speed="6.51" length="9.03" shape="589.60,195.20 592.05,194.85 593.80,193.80 594.85,192.05 595.20,189.60"/>
    </edge>
    <edge id=":08_10" function="internal">
        <lane id=":08_10_0" index="0" speed="11.11" length="20.80" shape="589.60,195.20 610.40,195.20"/>
    </edge>
    <edge id=":08_11" function="internal">
        <lane id=":08_11_0" index="0" speed="9.26" length="11.78" shape="589.60,198.40 594.85,199.15 598.60,201.40 599.68,203.20"/>
    </edge>
    <edge id=":08_15" function="internal">
        <lane id=":08_15_0" index="0" speed="9.26" length="7.58" shape="599.68,203.20 600.85,205.15 601.60,210.40"/>
    </edge>
    <edge id=":10_0" function="internal">
        <lane id=":10_0_0" index="0" speed="3.65" length="4.67" shape="201.60,800.00 200.80,801.20 200.00,801.60 199.20,801.20 198.40,800.00"/>
    </edge>
    <edge id=":11_0" function="internal">
        <lane id=":11_0_0" index="0" speed="3.65" length="4.67" shape="401.60,800.00 400.80,801.20 400.00,801.60 399.20,801.20 398.40,800.00"/>
    </edge>
    <edge id=":12_0" function="internal">
        <lane id=":12_0_0" index="0" speed="3.65" length="4.67" shape="601.60,800.00 600.80,801.20 600.00,801.60 599.20,801.20 598.40,800.00"/>
    </edge>
    <edge id=":13_0" function="internal">
        <lane id=":13_0_0" index="0" speed="3.65" length="4.67" shape="800.00,598.40 801.20,599.20 801.60,600.00 801.20,600.80 800.00,601.60"/>
    </edge>
    <edge id=":14_0" function="internal">
        <lane id=":14_0_0" index="0" speed="3.65" length="4.67" shape="800.00,398.40 801.20,399.20 801.60,400.00 801.20,400.80 800.00,401.60"/>
    </edge>
    <edge id=":15_0" function="internal">
        <lane id=":15_0_0" index="0" speed="3.65" length="4.67" shape="800.00,198.40 801.20,199.20 801.60,200.00 801.20,200.80 800.00,201.60"/>
    </edge>
    <edge id=":16_0" function="internal">
        <lane id=":16_0_0" index="0" speed="3.65" length="4.67" shape="598.40,0.00 599.20,-1.20 600.00,-1.60 600.80,-1.20 601.60,0.00"/>
    </edge>
    <edge id=":17_0" function="internal">
        <lane id=":17_0_0" index="0" speed="3.65" length="4.67" shape="398.40,0.00 399.20,-1.20 400.00,-1.60 400.80,-1.20 401.60,0.00"/>
    </edge>
    <edge id=":18_0" function="internal">
        <lane id=":18_0_0" index="0" speed="3.65" length="4.67" shape="198.40,0.00 199.20,-1.20 200.00,-1.60 200.80,-1.20 201.60,0.00"/>
    </edge>
    <edge id=":19_0" function="internal">
        <lane id=":19_0_0" index="0" speed="3.65" length="4.67" shape="0.00,201.60 -1.20,200.80 -1.60,200.00 -1.20,199.20 0.00,198.40"/>
    </edge>
    <edge id=":1a_0" function="internal">
        <lane id=":1a_0_0" index="0" speed="3.65" length="4.67" shape="0.00,401.60 -1.20,400.80 -1.60,400.00 -1.20,399.20 0.00,398.40"/>
    </edge>
    <edge id=":1b_0" function="internal">
        <lane id=":1b_0_0" index="0" speed="3.65" length="4.67" shape="0.00,601.60 -1.20,600.80 -1.60,600.00 -1.20,599.20 0.00,598.40"/>
    </edge>

    <edge id="00to01" from="00" to="01" priority="46" type="junction_out">
        <lane id="00to01_0" index="0" speed="11.11" length="179.20" shape="210.40,595.20 389.60,595.20"/>
        <lane id="00to01_1" index="1" speed="11.11" length="179.20" shape="210.40,598.40 389.60,598.40"/>
    </edge>
    <edge id="00to03" from="00" to="03" priority="46" type="junction_out">
        <lane id="00to03_0" index="0" speed="11.11" length="179.20" shape="195.20,589.60 195.20,410.40"/>
        <lane id="00to03_1" index="1" speed="11.11" length="179.20" shape="198.40,589.60 198.40,410.40"/>
    </edge>
    <edge id="00to10" from="00" to="10" priority="46" type="junction_out">
        <lane id="00to10_0" index="0" speed="11.11" length="189.60" shape="204.80,610.40 204.80,800.00"/>