<additional>
	<e2Detector id="det01to00-0" lane="01to00_0" pos="0" length="178" freq="50" file="sim.out" friendlyPos="x"/>
	<e2Detector id="det01to00-1" lane="01to00_1" pos="0" length="178" freq="50" file="sim.out" friendlyPos="x"/>
	<e2Detector id="det08to15-0" lane="08to15_0" pos="0" length="188" freq="50" file="sim.out" friendlyPos="x"/>
	<e2Detector id="det08to15-1" lane="08to15_1" pos="0" length="188" freq="50" file="sim.out" friendlyPos="x"/>
	<e2Detector id="det06to19-0" lane="06to19_0" pos="0" length="188" freq="50" file="sim.out" friendlyPos="x"/>
	<e2Detector id="det06to19-1" lane="06to19_1" pos="0" length="188" freq="50" file="sim.out" friendlyPos="x"/>
	<e2Detector id="det12to02-0" lane="12to02_0" pos="0" length="188" freq="50" file="sim.out" friendlyPos="x"/>
	<e2Detector id="det12to02-1" lane="12to02_1" pos="0" length="188" freq="50" file="sim.out" friendlyPos="x"/>
	<e2Detector id="det07to06-0" lane="07to06_0" pos="0" length="178" freq="50" file="sim.out" friendlyPos="x"/>
	<e2Detector id="det07to06-1" lane="07to06_1" pos="0" length="178" freq="50" file="sim.out" friendlyPos="x"/>
	<e2Detector id="det00to10-0" lane="00to10_0" pos="0" length="188" freq="50" file="sim.out" friendlyPos="x"/>
	<e2Detector id="det00to10-1" lane="00to10_1" pos="0" length="188" freq="50" file="sim.out" friendlyPos="x"/>
	<e2Detector id="det00to01-0" lane="00to01_0" pos="0" length="178" freq="50" file="sim.out" friendlyPos="x"/>
	<e2Detector id="det00to01-1" lane="00to01_1" pos="0" length="178" freq="50" file="sim.out" friendlyPos="x"/>
	<e2Detector id="det05to04-0" lane="05to04_0" pos="0" length="178" freq="50" file="sim.out" friendlyPos="x"/>
	<e2Detector id="det05to04-1" lane="05to04_1" pos="0" length="178" freq="50" file="sim.out" friendlyPos="x"/>
	<e2Detector id="det02to12-0" lane="02to12_0" pos="0" length="188" freq="50" file="sim.out" friendlyPos="x"/>
	<e2Detector id="det02to12-1" lane="02to12_1" pos="0" length="188" freq="50" file="sim.out" friendlyPos="x"/>
	<e2Detector id="det07to17-0" lane="07to17_0" pos="0" length="188" freq="50" file="sim.out" friendlyPos="x"/>
	<e2Detector id="det07to17-1" lane="07to17_1" pos="0" length="188" freq="50" file="sim.out" friendlyPos="x"/>
	<e2Detector id="det11to01-0" lane="11to01_0" pos="0" length="188" freq="50" file="sim.out" friendlyPos="x"/>
	<e2Detector id="det11to01-1" lane="11to01_1" pos="0" length="188" freq="50" file="sim.out" friendlyPos="x"/>
	<e2Detector id="det04to07-0" lane="04to07_0" pos="0" length="178" freq="50" file="sim.out" friendlyPos="x"/>
	<e2Detector id="det04to07-1" lane="04to07_1" pos="0" length="178" freq="50" file="sim.out" friendlyPos="x"/>
	<e2Detector id="det10to00-0" lane="10to00_0" pos="0" length="188" freq="50" file="sim.out" friendlyPos="x"/>
	<e2Detector id="det10to00-1" lane="10to00_1" pos="0" length="188" freq="50" file="sim.out" friendlyPos="x"/>
	<e2Detector id="det05to02-0" lane="05to02_0" pos="0" length="178" freq="50" file="sim.out" friendlyPos="x"/>
	<e2Detector id="det05to02-1" lane="05to02_1" pos="0" length="178" freq="50" file="sim.out" friendlyPos="x"/>
	<e2Detector id="det06to07-0" lane="06to07_0" pos="0" length="178" freq="50" file="sim.out" friendlyPos="x"/>
	<e2Detector id="det06to07-1" lane="06to07_1" pos="0" length="178" freq="50" file="sim.out" friendlyPos="x"/>
	<e2Detector id="det08to05-0" lane="08to05_0" pos="0" length="178" freq="50" file="sim.out" friendlyPos="x"/>
	<e2Detector id="det08to05-1" lane="08to05_1" pos="0" length="178" freq="50" file="sim.out" friendlyPos="x"/>
	<e2Detector id="det04to03-0" lane="04to03_0" pos="0" length="178" freq="50" file="sim.out" friendlyPos="x"/>
	<e2Detector id="det04to03-1" lane="04to03_1" pos="0" length="178" freq="50" file="sim.out" friendlyPos="x"/>
	<e2Detector id="det1ato03-0" lane="1ato03_0" pos="0" length="188" freq="50" file="sim.out" friendlyPos="x"/>
	<e2Detector id="det1ato03-1" lane="1ato03_1" pos="0" length="188" freq="50" file="sim.out" friendlyPos="x"/>
	<e2Detector id="det01to11-0" lane="01to11_0" pos="0" length="188" freq="50" file="sim.out" friendlyPos="x"/>
	<e2Detector id="det01to11-1" lane="01to11_1" pos="0" length="188" freq="50" file="sim.out" friendlyPos="x"/>
	<e2Detector id="det03to06-0" lane="03to06_0" pos="0" length="178" freq="50" file="sim.out" friendlyPos="x"/>
	<e2Detector id="det03to06-1" lane="03to06_1" pos="0" length="178" freq="50" file="sim.out" friendlyPos="x"/>
	<e2Detector id="det16to08-0" lane="16to08_0" pos="0" length="188" freq="50" file="sim.out" friendlyPos="x"/>
	<e2Detector id="det16to08-1" lane="16to08_1" pos="0" length="188" freq="50" file="sim.out" friendlyPos="x"/>
	<e2Detector id="det07to04-0" lane="07to04_0" pos="0" length="178" freq="50" file="sim.out" friendlyPos="x"/>
	<e2Detector id="det07to04-1" lane="07to04_1" pos="0" length="178" freq="50" file="sim.out" friendlyPos="x"/>
	<e2Detector id="det19to06-0" lane="19to06_0" pos="0" length="188" freq="50" file="sim.out" friendlyPos="x"/>
	<e2Detector id="det19to06-1" lane="19to06_1" pos="0" length="188" freq="50" file="sim.out" friendlyPos="x"/>
	<e2Detector id="det15to08-0" lane="15to08_0" pos="0" length="188" freq="50" file="sim.out" friendlyPos="x"/>
	<e2Detector id="det15to08-1" lane="15to08_1" pos="0" length="188" freq="50" file="sim.out" friendlyPos="x"/>
	<e2Detector id="det05to08-0" lane="05to08_0" pos="0" length="178" freq="50" file="sim.out" friendlyPos="x"/>
	<e2Detector id="det05to08-1" lane="05to08_1" pos="0" length="178" freq="50" file="sim.out" friendlyPos="x"/>
	<e2Detector id="det01to02-0" lane="01to02_0" pos="0" length="178" freq="50" file="sim.out" friendlyPos="x"/>
	<e2Detector id="det01to02-1" lane="01to02_1" pos="0" length="178" freq="50" file="sim.out" friendlyPos="x"/>
	<e2Detector id="det02to05-0" lane="02to05_0" pos="0" length="178" freq="50" file="sim.out" friendlyPos="x"/>
	<e2Detector id="det02to05-1" lane="02to05_1" pos="0" length="178" freq="50" file="sim.out" friendlyPos="x"/>
	<e2Detector id="det1bto00-0" lane="1bto00_0" pos="0" length="188" freq="50" file="sim.out" friendlyPos="x"/>
	<e2Detector id="det1bto00-1" lane="1bto00_1" pos="0" length="188" freq="50" file="sim.out" friendlyPos="x"/>
	<e2Detector id="det05to14-0" lane="05to14_0" pos="0" length="188" freq="50" file="sim.out" friendlyPos="x"/>
	<e2Detector id="det05to14-1" lane="05to14_1" pos="0" length="188" freq="50" file="sim.out" friendlyPos="x"/>
	<e2Detector id="det03to04-0" lane="03to04_0" pos="0" length="178" freq="50" file="sim.out" friendlyPos="x"/>
	<e2Detector id="det03to04-1" lane="03to04_1" pos="0" length="178" freq="50" file="sim.out" friendlyPos="x"/>
	<e2Detector id="det00to03-0" lane="00to03_0" pos="0" length="178" freq="50" file="sim.out" friendlyPos="x"/>
	<e2Detector id="det00to03-1" lane="00to03_1" pos="0" length="178" freq="50" file="sim.out" friendlyPos="x"/>
	<e2Detector id="det18to06-0" lane="18to06_0" pos="0" length="188" freq="50" file="sim.out" friendlyPos="x"/>
	<e2Detector id="det18to06-1" lane="18to06_1" pos="0" length="188" freq="50" file="sim.out" friendlyPos="x"/>
	<e2Detector id="det04to05-0" lane="04to05_0" pos="0" length="178" freq="50" file="sim.out" friendlyPos="x"/>
	<e2Detector id="det04to05-1" lane="04to05_1" pos="0" length="178" freq="50" file="sim.out" friendlyPos="x"/>
	<e2Detector id="det02to01-0" lane="02to01_0" pos="0" length="178" freq="50" file="sim.out" friendlyPos="x"/>
	<e2Detector id="det02to01-1" lane="02to01_1" pos="0" length="178" freq="50" file="sim.out" friendlyPos="x"/>
	<e2Detector id="det17to07-0" lane="17to07_0" pos="0" length="188" freq="50" file="sim.out" friendlyPos="x"/>
	<e2Detector id="det17to07-1" lane="17to07_1" pos="0" length="188" freq="50" file="sim.out" friendlyPos="x"/>
	<e2Detector id="det03to00-0" lane="03to00_0" pos="0" length="178" freq="50" file="sim.out" friendlyPos="x"/>
	<e2Detector id="det03to00-1" lane="03to00_1" pos="0" length="178" freq="50" file="sim.out" friendlyPos="x"/>
	<e2Detector id="det08to07-0" lane="08to07_0" pos="0" length="178" freq="50" file="sim.out" friendlyPos="x"/>
	<e2Detector id="det08to07-1" lane="08to07_1" pos="0" length="178" freq="50" file="sim.out" friendlyPos="x"/>
	<e2Detector id="det00to1b-0" lane="00to1b_0" pos="0" length="188" freq="50" file="sim.out" friendlyPos="x"/>
	<e2Detector id="det00to1b-1" lane="00to1b_1" pos="0" length="188" freq="50" file="sim.out" friendlyPos="x"/>
	<e2Detector id="det08to16-0" lane="08to16_0" pos="0" length="188" freq="50" file="sim.out" friendlyPos="x"/>
	<e2Detector id="det08to16-1" lane="08to16_1" pos="0" length="188" freq="50" file="sim.out" friendlyPos="x"/>
	<e2Detector id="det03to1a-0" lane="03to1a_0" pos="0" length="188" freq="50" file="sim.out" friendlyPos="x"/>
	<e2Detector id="det03to1a-1" lane="03to1a_1" pos="0" length="188" freq="50" file="sim.out" friendlyPos="x"/>
	<e2Detector id="det14to05-0" lane="14to05_0" pos="0" length="188" freq="50" file="sim.out" friendlyPos="x"/>
	<e2Detector id="det14to05-1" lane="14to05_1" pos="0" length="188" freq="50" file="sim.out" friendlyPos="x"/>
	<e2Detector id="det04to01-0" lane="04to01_0" pos="0" length="178" freq="50" file="sim.out" friendlyPos="x"/>
	<e2Detector id="det04to01-1" lane="04to01_1" pos="0" length="178" freq="50" file="sim.out" friendlyPos="x"/>
	<e2Detector id="det13to02-0" lane="13to02_0" pos="0" length="188" freq="50" file="sim.out" friendlyPos="x"/>
	<e2Detector id="det13to02-1" lane="13to02_1" pos="0" length="188" freq="50" file="sim.out" friendlyPos="x"/>
	<e2Detector id="det07to08-0" lane="07to08_0" pos="0" length="178" freq="50" file="sim.out" friendlyPos="x"/>
	<e2Detector id="det07to08-1" lane="07to08_1" pos="0" length="178" freq="50" file="sim.out" friendlyPos="x"/>
	<e2Detector id="det01to04-0" lane="01to04_0" pos="0" length="178" freq="50" file="sim.out" friendlyPos="x"/>
	<e2Detector id="det01to04-1" lane="01to04_1" pos="0" length="178" freq="50" file="sim.out" friendlyPos="x"/>
	<e2Detector id="det06to03-0" lane="06to03_0" pos="0" length="178" freq="50" file="sim.out" friendlyPos="x"/>
	<e2Detector id="det06to03-1" lane="06to03_1" pos="0" length="178" freq="50" file="sim.out" friendlyPos="x"/>
	<e2Detector id="det02to13-0" lane="02to13_0" pos="0" length="188" freq="50" file="sim.out" friendlyPos="x"/>
	<e2Detector id="det02to13-1" lane="02to13_1" pos="0" length="188" freq="50" file="sim.out" friendlyPos="x"/>
	<e2Detector id="det06to18-0" lane="06to18_0" pos="0" length="188" freq="50" file="sim.out" friendlyPos="x"/>
	<e2Detector id="det06to18-1" lane="06to18_1" pos="0" length="188" freq="50" file="sim.out" friendlyPos="x"/>
</additional>