<configuration>

    <input>
        <net-file value="sim.net.xml"/>
        <route-files value="sim.rou.xml"/>
        <additional-files value="sim.det.xml,sim.add.xml"/>
    </input>

    <time>
        <begin value="0"/>
    </time>

    <report>
        <verbose value="true"/>
        <no-step-log value="false"/>
    </report>

</configuration>