<routes>
	<vType id="typeCar" accel="0.8" decel="4.5" sigma="0.5" length="5" minGap="2.5" maxSpeed="16.67" guiShape="passenger"/>
	<vType id="typeBus" accel="0.8" decel="4.5" sigma="0.5" length="7" minGap="3" maxSpeed="25" guiShape="bus"/>

	<route id="11to15" edges="11to01 01to02 02to05 05to08 08to15"/>
	<route id="19to18" edges="19to06 06to18"/>
	<route id="18to15" edges="18to06 06to07 07to08 08to15"/>
	<route id="19to16" edges="19to06 06to07 07to08 08to16"/>
	<route id="10to15" edges="10to00 00to01 01to02 02to05 05to08 08to15"/>
	<route id="10to1b" edges="10to00 00to1b"/>
	<route id="1bto14" edges="1bto00 00to01 01to02 02to05 05to14"/>
	<route id="13to19" edges="13to02 02to01 01to00 00to03 03to06 06to19"/>
	<route id="12to14" edges="12to02 02to05 05to14"/>
	<route id="17to1b" edges="17to07 07to06 06to03 03to00 00to1b"/>
	<route id="12to1b" edges="12to02 02to01 01to00 00to1b"/>
	<route id="16to1a" edges="16to08 08to07 07to06 06to03 03to1a"/>
	<route id="19to11" edges="19to06 06to07 07to04 04to01 01to11"/>
	<route id="17to11" edges="17to07 07to04 04to01 01to11"/>
	<route id="10to14" edges="10to00 00to01 01to02 02to05 05to14"/>
	<route id="19to12" edges="19to06 06to07 07to08 08to05 05to02 02to12"/>
	<route id="1ato12" edges="1ato03 03to04 04to05 05to02 02to12"/>
	<route id="15to17" edges="15to08 08to07 07to17"/>
	<route id="1ato11" edges="1ato03 03to04 04to01 01to11"/>
	<route id="16to1b" edges="16to08 08to07 07to06 06to03 03to00 00to1b"/>
	<route id="17to18" edges="17to07 07to06 06to18"/>
	<route id="19to13" edges="19to06 06to07 07to08 08to05 05to02 02to13"/>
	<route id="17to16" edges="17to07 07to08 08to16"/>
	<route id="14to1a" edges="14to05 05to04 04to03 03to1a"/>
	<route id="14to15" edges="14to05 05to08 08to15"/>
	<route id="19to1a" edges="19to06 06to03 03to1a"/>
	<route id="17to13" edges="17to07 07to08 08to05 05to02 02to13"/>
	<route id="1ato18" edges="1ato03 03to06 06to18"/>
	<route id="19to15" edges="19to06 06to07 07to08 08to15"/>
	<route id="16to11" edges="16to08 08to07 07to04 04to01 01to11"/>
	<route id="18to1a" edges="18to06 06to03 03to1a"/>
	<route id="11to19" edges="11to01 01to00 00to03 03to06 06to19"/>
	<route id="18to11" edges="18to06 06to07 07to04 04to01 01to11"/>
	<route id="10to17" edges="10to00 00to01 01to04 04to07 07to17"/>
	<route id="12to13" edges="12to02 02to13"/>
	<route id="17to14" edges="17to07 07to08 08to05 05to14"/>
	<route id="10to11" edges="10to00 00to01 01to11"/>
	<route id="12to16" edges="12to02 02to05 05to08 08to16"/>
	<route id="18to12" edges="18to06 06to07 07to08 08to05 05to02 02to12"/>
	<route id="14to1b" edges="14to05 05to04 04to03 03to00 00to1b"/>
	<route id="14to18" edges="14to05 05to04 04to03 03to06 06to18"/>
	<route id="17to15" edges="17to07 07to08 08to15"/>
	<route id="16to18" edges="16to08 08to07 07to06 06to18"/>
	<route id="11to1a" edges="11to01 01to00 00to03 03to1a"/>
	<route id="10to12" edges="10to00 00to01 01to02 02to12"/>
	<route id="12to11" edges="12to02 02to01 01to11"/>
	<route id="11to17" edges="11to01 01to04 04to07 07to17"/>
	<route id="11to10" edges="11to01 01to00 00to10"/>
	<route id="1bto16" edges="1bto00 00to01 01to02 02to05 05to08 08to16"/>
	<route id="15to14" edges="15to08 08to05 05to14"/>
	<route id="15to12" edges="15to08 08to05 05to02 02to12"/>
	<route id="16to13" edges="16to08 08to05 05to02 02to13"/>
	<route id="11to12" edges="11to01 01to02 02to12"/>
	<route id="14to17" edges="14to05 05to04 04to07 07to17"/>
	<route id="1bto13" edges="1bto00 00to01 01to02 02to13"/>
	<route id="18to1b" edges="18to06 06to03 03to00 00to1b"/>
	<route id="14to13" edges="14to05 05to02 02to13"/>
	<route id="13to1b" edges="13to02 02to01 01to00 00to1b"/>
	<route id="1bto12" edges="1bto00 00to01 01to02 02to12"/>
	<route id="10to13" edges="10to00 00to01 01to02 02to13"/>
	<route id="17to1a" edges="17to07 07to06 06to03 03to1a"/>
	<route id="19to14" edges="19to06 06to07 07to08 08to05 05to14"/>
	<route id="18to10" edges="18to06 06to03 03to00 00to10"/>
	<route id="17to19" edges="17to07 07to06 06to19"/>
	<route id="11to18" edges="11to01 01to00 00to03 03to06 06to18"/>
	<route id="18to16" edges="18to06 06to07 07to08 08to16"/>
	<route id="12to15" edges="12to02 02to05 05to08 08to15"/>
	<route id="12to1a" edges="12to02 02to01 01to00 00to03 03to1a"/>
	<route id="16to17" edges="16to08 08to07 07to17"/>
	<route id="17to12" edges="17to07 07to08 08to05 05to02 02to12"/>
	<route id="14to11" edges="14to05 05to04 04to01 01to11"/>
	<route id="10to16" edges="10to00 00to01 01to02 02to05 05to08 08to16"/>
	<route id="1bto11" edges="1bto00 00to01 01to11"/>
	<route id="19to17" edges="19to06 06to07 07to17"/>
	<route id="12to18" edges="12to02 02to01 01to00 00to03 03to06 06to18"/>
	<route id="14to19" edges="14to05 05to04 04to03 03to06 06to19"/>
	<route id="1ato13" edges="1ato03 03to04 04to05 05to02 02to13"/>
	<route id="18to19" edges="18to06 06to19"/>
	<route id="14to10" edges="14to05 05to04 04to03 03to00 00to10"/>
	<route id="10to1a" edges="10to00 00to03 03to1a"/>
	<route id="1ato17" edges="1ato03 03to04 04to07 07to17"/>
	<route id="10to19" edges="10to00 00to03 03to06 06to19"/>
	<route id="18to13" edges="18to06 06to07 07to08 08to05 05to02 02to13"/>
	<route id="13to1a" edges="13to02 02to01 01to00 00to03 03to1a"/>
	<route id="18to14" edges="18to06 06to07 07to08 08to05 05to14"/>
	<route id="19to1b" edges="19to06 06to03 03to00 00to1b"/>
	<route id="18to17" edges="18to06 06to07 07to17"/>
	<route id="15to19" edges="15to08 08to07 07to06 06to19"/>
	<route id="10to18" edges="10to00 00to03 03to06 06to18"/>
	<route id="1ato10" edges="1ato03 03to00 00to10"/>


	<vehicle id="0" type="typeBus" route="15to19" depart="1"/>
	<vehicle id="1" type="typeBus" route="18to12" depart="4"/>
	<vehicle id="2" type="typeBus" route="1ato12" depart="5"/>
	<vehicle id="3" type="typeBus" route="17to13" depart="9"/>
	<vehicle id="4" type="typeCar" route="14to1a" depart="9"/>
	<vehicle id="5" type="typeBus" route="18to19" depart="11"/>
	<vehicle id="6" type="typeBus" route="12to14" depart="14"/>
	<vehicle id="7" type="typeBus" route="18to1b" depart="16"/>
	<vehicle id="8" type="typeBus" route="11to17" depart="18"/>
	<vehicle id="9" type="typeBus" route="14to19" depart="19"/>
	<vehicle id="10" type="typeBus" route="10to18" depart="23"/>
	<vehicle id="11" type="typeBus" route="13to1a" depart="23"/>
	<vehicle id="12" type="typeBus" route="16to13" depart="27"/>
	<vehicle id="13" type="typeBus" route="17to14" depart="27"/>
	<vehicle id="14" type="typeCar" route="12to15" depart="30"/>
	<vehicle id="15" type="typeBus" route="18to1b" depart="31"/>
	<vehicle id="16" type="typeBus" route="12to14" depart="33"/>
	<vehicle id="17" type="typeBus" route="13to19" depart="36"/>
	<vehicle id="18" type="typeBus" route="14to19" depart="37"/>
	<vehicle id="19" type="typeCar" route="18to1a" depart="41"/>
	<vehicle id="20" type="typeBus" route="16to18" depart="43"/>
	<vehicle id="21" type="typeBus" route="18to10" depart="44"/>
	<vehicle id="22" type="typeBus" route="12to1a" depart="46"/>
	<vehicle id="23" type="typeCar" route="10to11" depart="47"/>
	<vehicle id="24" type="typeCar" route="18to14" depart="50"/>
	<vehicle id="25" type="typeBus" route="18to10" depart="51"/>
	<vehicle id="26" type="typeBus" route="14to13" depart="55"/>
	<vehicle id="27" type="typeBus" route="19to1a" depart="57"/>
	<vehicle id="28" type="typeBus" route="14to10" depart="57"/>
	<vehicle id="29" type="typeBus" route="10to19" depart="59"/>
	<vehicle id="30" type="typeBus" route="10to12" depart="62"/>
	<vehicle id="31" type="typeBus" route="11to10" depart="64"/>
	<vehicle id="32" type="typeBus" route="10to18" depart="66"/>
	<vehicle id="33" type="typeBus" route="15to19" depart="67"/>
	<vehicle id="34" type="typeBus" route="14to19" depart="71"/>
	<vehicle id="35" type="typeBus" route="19to14" depart="72"/>
	<vehicle id="36" type="typeCar" route="11to15" depart="74"/>
	<vehicle id="37" type="typeBus" route="11to18" depart="75"/>
	<vehicle id="38" type="typeBus" route="14to18" depart="78"/>
	<vehicle id="39" type="typeBus" route="14to10" depart="80"/>
	<vehicle id="40" type="typeBus" route="13to1b" depart="82"/>
	<vehicle id="41" type="typeBus" route="10to11" depart="83"/>
	<vehicle id="42" type="typeBus" route="10to19" depart="87"/>
	<vehicle id="43" type="typeCar" route="19to11" depart="89"/>
	<vehicle id="44" type="typeBus" route="19to13" depart="90"/>
	<vehicle id="45" type="typeBus" route="1ato18" depart="92"/>
	<vehicle id="46" type="typeBus" route="17to14" depart="95"/>
	<vehicle id="47" type="typeBus" route="12to1b" depart="96"/>
	<vehicle id="48" type="typeBus" route="18to15" depart="99"/>
	<vehicle id="49" type="typeBus" route="18to12" depart="100"/>
	<vehicle id="50" type="typeBus" route="1bto14" depart="103"/>
	<vehicle id="51" type="typeBus" route="11to17" depart="103"/>
	<vehicle id="52" type="typeBus" route="18to14" depart="107"/>
	<vehicle id="53" type="typeBus" route="18to17" depart="108"/>
	<vehicle id="54" type="typeBus" route="12to16" depart="111"/>
	<vehicle id="55" type="typeBus" route="17to13" depart="112"/>
	<vehicle id="56" type="typeBus" route="16to17" depart="115"/>
	<vehicle id="57" type="typeBus" route="12to16" depart="116"/>
	<vehicle id="58" type="typeCar" route="10to12" depart="119"/>
	<vehicle id="59" type="typeBus" route="19to18" depart="120"/>
	<vehicle id="60" type="typeBus" route="17to14" depart="121"/>
	<vehicle id="61" type="typeBus" route="10to15" depart="125"/>
	<vehicle id="62" type="typeBus" route="19to17" depart="127"/>
	<vehicle id="63" type="typeBus" route="10to16" depart="129"/>
	<vehicle id="64" type="typeCar" route="19to17" depart="131"/>
	<vehicle id="65" type="typeBus" route="1ato10" depart="133"/>
	<vehicle id="66" type="typeBus" route="1ato13" depart="135"/>
	<vehicle id="67" type="typeBus" route="11to17" depart="137"/>
	<vehicle id="68" type="typeBus" route="1bto12" depart="139"/>
	<vehicle id="69" type="typeBus" route="10to14" depart="139"/>
	<vehicle id="70" type="typeBus" route="12to11" depart="141"/>
	<vehicle id="71" type="typeBus" route="17to11" depart="144"/>
	<vehicle id="72" type="typeBus" route="11to19" depart="145"/>
	<vehicle id="73" type="typeBus" route="18to1b" depart="147"/>
	<vehicle id="74" type="typeCar" route="19to1a" depart="151"/>
	<vehicle id="75" type="typeBus" route="15to12" depart="152"/>
	<vehicle id="76" type="typeBus" route="18to1a" depart="155"/>
	<vehicle id="77" type="typeBus" route="15to12" depart="156"/>
	<vehicle id="78" type="typeBus" route="10to11" depart="159"/>
	<vehicle id="79" type="typeBus" route="1ato10" depart="161"/>
	<vehicle id="80" type="typeCar" route="16to11" depart="161"/>
	<vehicle id="81" type="typeCar" route="18to12" depart="164"/>
	<vehicle id="82" type="typeBus" route="16to1a" depart="165"/>
	<vehicle id="83" type="typeBus" route="1ato11" depart="167"/>
	<vehicle id="84" type="typeBus" route="15to14" depart="170"/>
	<vehicle id="85" type="typeBus" route="1ato18" depart="172"/>
	<vehicle id="86" type="typeBus" route="13to1b" depart="174"/>
	<vehicle id="87" type="typeBus" route="15to14" depart="176"/>
	<vehicle id="88" type="typeBus" route="14to11" depart="179"/>
	<vehicle id="89" type="typeBus" route="12to15" depart="180"/>
	<vehicle id="90" type="typeBus" route="19to18" depart="181"/>
	<vehicle id="91" type="typeBus" route="15to14" depart="183"/>
	<vehicle id="92" type="typeBus" route="12to14" depart="187"/>
	<vehicle id="93" type="typeBus" route="18to16" depart="189"/>
	<vehicle id="94" type="typeBus" route="18to1b" depart="189"/>
	<vehicle id="95" type="typeBus" route="1ato12" depart="191"/>
	<vehicle id="96" type="typeBus" route="10to1b" depart="194"/>
	<vehicle id="97" type="typeCar" route="1bto16" depart="196"/>
	<vehicle id="98" type="typeBus" route="12to15" depart="198"/>
	<vehicle id="99" type="typeBus" route="10to18" depart="201"/>
	<vehicle id="100" type="typeBus" route="17to1a" depart="201"/>
	<vehicle id="101" type="typeBus" route="19to16" depart="204"/>
	<vehicle id="102" type="typeBus" route="17to1b" depart="205"/>
	<vehicle id="103" type="typeBus" route="11to15" depart="209"/>
	<vehicle id="104" type="typeBus" route="10to19" depart="210"/>
	<vehicle id="105" type="typeBus" route="1bto14" depart="212"/>
	<vehicle id="106" type="typeBus" route="18to1a" depart="215"/>
	<vehicle id="107" type="typeBus" route="17to19" depart="216"/>
	<vehicle id="108" type="typeBus" route="12to1a" depart="219"/>
	<vehicle id="109" type="typeBus" route="1ato17" depart="221"/>
	<vehicle id="110" type="typeBus" route="16to11" depart="221"/>
	<vehicle id="111" type="typeBus" route="19to16" depart="225"/>
	<vehicle id="112" type="typeBus" route="18to16" depart="227"/>
	<vehicle id="113" type="typeBus" route="12to1a" depart="229"/>
	<vehicle id="114" type="typeBus" route="10to1b" depart="231"/>
	<vehicle id="115" type="typeBus" route="17to15" depart="233"/>
	<vehicle id="116" type="typeBus" route="19to16" depart="234"/>
	<vehicle id="117" type="typeBus" route="11to10" depart="236"/>
	<vehicle id="118" type="typeBus" route="12to18" depart="238"/>
	<vehicle id="119" type="typeBus" route="12to11" depart="239"/>
	<vehicle id="120" type="typeBus" route="10to15" depart="241"/>
	<vehicle id="121" type="typeBus" route="10to17" depart="245"/>
	<vehicle id="122" type="typeBus" route="10to12" depart="245"/>
	<vehicle id="123" type="typeBus" route="18to11" depart="249"/>
	<vehicle id="124" type="typeBus" route="14to18" depart="249"/>
	<vehicle id="125" type="typeCar" route="19to16" depart="253"/>
	<vehicle id="126" type="typeBus" route="18to12" depart="254"/>
	<vehicle id="127" type="typeBus" route="14to17" depart="257"/>
	<vehicle id="128" type="typeBus" route="10to1b" depart="258"/>
	<vehicle id="129" type="typeBus" route="15to19" depart="260"/>
	<vehicle id="130" type="typeCar" route="1ato11" depart="263"/>
	<vehicle id="131" type="typeBus" route="16to11" depart="263"/>
	<vehicle id="132" type="typeBus" route="1ato17" depart="266"/>
	<vehicle id="133" type="typeBus" route="19to1b" depart="267"/>
	<vehicle id="134" type="typeBus" route="10to1a" depart="269"/>
	<vehicle id="135" type="typeBus" route="10to13" depart="272"/>
	<vehicle id="136" type="typeCar" route="16to13" depart="273"/>
	<vehicle id="137" type="typeBus" route="14to18" depart="276"/>
	<vehicle id="138" type="typeBus" route="10to1b" depart="279"/>
	<vehicle id="139" type="typeBus" route="17to11" depart="279"/>
	<vehicle id="140" type="typeBus" route="17to19" depart="282"/>
	<vehicle id="141" type="typeBus" route="19to17" depart="285"/>
	<vehicle id="142" type="typeCar" route="1bto11" depart="285"/>
	<vehicle id="143" type="typeBus" route="12to14" depart="289"/>
	<vehicle id="144" type="typeBus" route="1bto13" depart="290"/>
	<vehicle id="145" type="typeBus" route="17to13" depart="293"/>
	<vehicle id="146" type="typeCar" route="19to16" depart="294"/>
	<vehicle id="147" type="typeBus" route="1ato12" depart="296"/>
	<vehicle id="148" type="typeBus" route="16to13" depart="297"/>
	<vehicle id="149" type="typeBus" route="18to11" depart="300"/>
	<vehicle id="150" type="typeCar" route="17to16" depart="301"/>
	<vehicle id="151" type="typeBus" route="11to1a" depart="304"/>
	<vehicle id="152" type="typeBus" route="17to1b" depart="305"/>
	<vehicle id="153" type="typeBus" route="19to12" depart="307"/>
	<vehicle id="154" type="typeBus" route="18to13" depart="311"/>
	<vehicle id="155" type="typeBus" route="11to17" depart="313"/>
	<vehicle id="156" type="typeCar" route="19to1a" depart="315"/>
	<vehicle id="157" type="typeBus" route="12to13" depart="316"/>
	<vehicle id="158" type="typeBus" route="1ato11" depart="318"/>
	<vehicle id="159" type="typeBus" route="18to11" depart="321"/>
	<vehicle id="160" type="typeBus" route="16to11" depart="322"/>
	<vehicle id="161" type="typeBus" route="10to1a" depart="323"/>
	<vehicle id="162" type="typeBus" route="19to15" depart="326"/>
	<vehicle id="163" type="typeBus" route="10to11" depart="328"/>
	<vehicle id="164" type="typeBus" route="10to1b" depart="331"/>
	<vehicle id="165" type="typeBus" route="12to15" depart="332"/>
	<vehicle id="166" type="typeCar" route="16to1a" depart="333"/>
	<vehicle id="167" type="typeCar" route="1bto16" depart="336"/>
	<vehicle id="168" type="typeBus" route="11to18" depart="338"/>
	<vehicle id="169" type="typeBus" route="11to17" depart="341"/>
	<vehicle id="170" type="typeBus" route="12to18" depart="343"/>
	<vehicle id="171" type="typeBus" route="14to18" depart="345"/>
	<vehicle id="172" type="typeBus" route="14to1b" depart="346"/>
	<vehicle id="173" type="typeBus" route="16to1b" depart="347"/>
	<vehicle id="174" type="typeBus" route="17to11" depart="350"/>
	<vehicle id="175" type="typeBus" route="10to18" depart="352"/>
	<vehicle id="176" type="typeBus" route="17to1b" depart="354"/>
	<vehicle id="177" type="typeBus" route="16to1a" depart="356"/>
	<vehicle id="178" type="typeBus" route="17to13" depart="357"/>
	<vehicle id="179" type="typeBus" route="18to17" depart="361"/>
	<vehicle id="180" type="typeBus" route="1bto14" depart="363"/>
	<vehicle id="181" type="typeBus" route="17to19" depart="365"/>
	<vehicle id="182" type="typeBus" route="10to11" depart="367"/>
	<vehicle id="183" type="typeBus" route="14to15" depart="368"/>
	<vehicle id="184" type="typeBus" route="12to11" depart="370"/>
	<vehicle id="185" type="typeBus" route="19to12" depart="371"/>
	<vehicle id="186" type="typeBus" route="13to1b" depart="373"/>
	<vehicle id="187" type="typeBus" route="16to11" depart="377"/>
	<vehicle id="188" type="typeBus" route="1ato12" depart="378"/>
	<vehicle id="189" type="typeBus" route="10to16" depart="379"/>
	<vehicle id="190" type="typeBus" route="17to12" depart="383"/>
	<vehicle id="191" type="typeBus" route="17to16" depart="384"/>
	<vehicle id="192" type="typeBus" route="14to13" depart="387"/>
	<vehicle id="193" type="typeBus" route="10to1a" depart="389"/>
	<vehicle id="194" type="typeBus" route="16to17" depart="391"/>
	<vehicle id="195" type="typeBus" route="17to18" depart="392"/>
	<vehicle id="196" type="typeCar" route="1bto13" depart="395"/>
	<vehicle id="197" type="typeBus" route="14to17" depart="397"/>
	<vehicle id="198" type="typeBus" route="19to11" depart="398"/>
	<vehicle id="199" type="typeBus" route="1ato18" depart="399"/>
	<vehicle id="200" type="typeBus" route="17to12" depart="403"/>
	<vehicle id="201" type="typeBus" route="11to18" depart="405"/>
	<vehicle id="202" type="typeBus" route="18to1b" depart="407"/>
	<vehicle id="203" type="typeBus" route="12to13" depart="409"/>
	<vehicle id="204" type="typeBus" route="18to12" depart="409"/>
	<vehicle id="205" type="typeBus" route="18to16" depart="411"/>
	<vehicle id="206" type="typeBus" route="18to17" depart="413"/>
	<vehicle id="207" type="typeBus" route="1bto11" depart="416"/>
	<vehicle id="208" type="typeBus" route="13to1a" depart="417"/>
	<vehicle id="209" type="typeBus" route="14to15" depart="421"/>
	<vehicle id="210" type="typeBus" route="17to12" depart="421"/>
	<vehicle id="211" type="typeBus" route="17to15" depart="424"/>
	<vehicle id="212" type="typeBus" route="18to15" depart="425"/>
	<vehicle id="213" type="typeBus" route="1ato10" depart="427"/>
	<vehicle id="214" type="typeBus" route="19to11" depart="429"/>
	<vehicle id="215" type="typeBus" route="15to12" depart="431"/>
	<vehicle id="216" type="typeBus" route="17to13" depart="434"/>
	<vehicle id="217" type="typeBus" route="17to15" depart="435"/>
	<vehicle id="218" type="typeBus" route="17to15" depart="437"/>
	<vehicle id="219" type="typeBus" route="19to11" depart="440"/>
	<vehicle id="220" type="typeBus" route="18to11" depart="441"/>
	<vehicle id="221" type="typeBus" route="14to17" depart="445"/>
	<vehicle id="222" type="typeBus" route="12to1b" depart="446"/>
	<vehicle id="223" type="typeBus" route="19to13" depart="449"/>
	<vehicle id="224" type="typeBus" route="13to1b" depart="449"/>
	<vehicle id="225" type="typeBus" route="17to12" depart="452"/>
	<vehicle id="226" type="typeBus" route="16to13" depart="455"/>
	<vehicle id="227" type="typeBus" route="12to15" depart="456"/>
	<vehicle id="228" type="typeCar" route="14to15" depart="459"/>
	<vehicle id="229" type="typeBus" route="18to14" depart="459"/>
	<vehicle id="230" type="typeBus" route="17to18" depart="461"/>
	<vehicle id="231" type="typeBus" route="1ato11" depart="464"/>
	<vehicle id="232" type="typeBus" route="10to1b" depart="467"/>
	<vehicle id="233" type="typeCar" route="11to17" depart="467"/>
	<vehicle id="234" type="typeBus" route="16to13" depart="471"/>
	<vehicle id="235" type="typeBus" route="19to1a" depart="471"/>
	<vehicle id="236" type="typeBus" route="10to12" depart="473"/>
	<vehicle id="237" type="typeBus" route="1ato18" depart="477"/>
	<vehicle id="238" type="typeBus" route="14to11" depart="477"/>
	<vehicle id="239" type="typeBus" route="1ato17" depart="479"/>
	<vehicle id="240" type="typeBus" route="10to15" depart="482"/>
	<vehicle id="241" type="typeBus" route="11to18" depart="485"/>
	<vehicle id="242" type="typeBus" route="18to12" depart="487"/>
	<vehicle id="243" type="typeBus" route="10to1b" depart="487"/>
	<vehicle id="244" type="typeBus" route="16to1b" depart="491"/>
	<vehicle id="245" type="typeBus" route="1ato17" depart="493"/>
	<vehicle id="246" type="typeBus" route="18to11" depart="494"/>
	<vehicle id="247" type="typeBus" route="1ato10" depart="496"/>
	<vehicle id="248" type="typeBus" route="14to1a" depart="498"/>
	<vehicle id="249" type="typeBus" route="18to16" depart="501"/>
	<vehicle id="250" type="typeBus" route="13to19" depart="502"/>
	<vehicle id="251" type="typeBus" route="10to16" depart="503"/>
	<vehicle id="252" type="typeBus" route="19to1a" depart="505"/>
	<vehicle id="253" type="typeCar" route="10to1a" depart="509"/>
	<vehicle id="254" type="typeBus" route="14to1b" depart="509"/>
	<vehicle id="255" type="typeBus" route="14to18" depart="512"/>
	<vehicle id="256" type="typeBus" route="1ato10" depart="515"/>
	<vehicle id="257" type="typeBus" route="18to10" depart="517"/>
	<vehicle id="258" type="typeBus" route="19to1b" depart="517"/>
	<vehicle id="259" type="typeBus" route="11to1a" depart="519"/>
	<vehicle id="260" type="typeBus" route="10to15" depart="523"/>
	<vehicle id="261" type="typeBus" route="17to11" depart="525"/>
	<vehicle id="262" type="typeBus" route="18to16" depart="525"/>
	<vehicle id="263" type="typeBus" route="12to1a" depart="528"/>
	<vehicle id="264" type="typeBus" route="12to11" depart="529"/>
	<vehicle id="265" type="typeCar" route="12to11" depart="532"/>
	<vehicle id="266" type="typeBus" route="19to12" depart="535"/>
	<vehicle id="267" type="typeCar" route="1ato10" depart="536"/>
	<vehicle id="268" type="typeBus" route="1ato10" depart="539"/>
	<vehicle id="269" type="typeBus" route="19to14" depart="541"/>
	<vehicle id="270" type="typeBus" route="11to19" depart="542"/>
	<vehicle id="271" type="typeBus" route="14to17" depart="543"/>
	<vehicle id="272" type="typeBus" route="17to13" depart="546"/>
	<vehicle id="273" type="typeBus" route="12to18" depart="547"/>
	<vehicle id="274" type="typeBus" route="1bto11" depart="549"/>
	<vehicle id="275" type="typeBus" route="1ato10" depart="551"/>
	<vehicle id="276" type="typeBus" route="17to19" depart="554"/>
	<vehicle id="277" type="typeBus" route="16to17" depart="555"/>
	<vehicle id="278" type="typeBus" route="19to12" depart="559"/>
	<vehicle id="279" type="typeBus" route="1ato11" depart="560"/>
	<vehicle id="280" type="typeBus" route="1bto16" depart="563"/>
	<vehicle id="281" type="typeBus" route="10to1b" depart="563"/>
	<vehicle id="282" type="typeBus" route="16to1b" depart="565"/>
	<vehicle id="283" type="typeBus" route="14to1b" depart="568"/>
	<vehicle id="284" type="typeBus" route="15to12" depart="570"/>
	<vehicle id="285" type="typeBus" route="10to18" depart="573"/>
	<vehicle id="286" type="typeCar" route="11to1a" depart="575"/>
	<vehicle id="287" type="typeBus" route="10to19" depart="575"/>
	<vehicle id="288" type="typeBus" route="18to13" depart="577"/>
	<vehicle id="289" type="typeBus" route="14to1a" depart="579"/>
	<vehicle id="290" type="typeCar" route="11to15" depart="582"/>
	<vehicle id="291" type="typeBus" route="18to19" depart="585"/>
	<vehicle id="292" type="typeBus" route="10to12" depart="587"/>
	<vehicle id="293" type="typeBus" route="13to1b" depart="587"/>
	<vehicle id="294" type="typeCar" route="10to1b" depart="590"/>
	<vehicle id="295" type="typeBus" route="19to1b" depart="591"/>
	<vehicle id="296" type="typeBus" route="11to15" depart="593"/>
	<vehicle id="297" type="typeBus" route="13to1b" depart="597"/>
	<vehicle id="298" type="typeBus" route="19to11" depart="597"/>
	<vehicle id="299" type="typeBus" route="1ato13" depart="600"/>
	<vehicle id="300" type="typeBus" route="11to18" depart="602"/>
	<vehicle id="301" type="typeBus" route="10to11" depart="604"/>
	<vehicle id="302" type="typeBus" route="18to16" depart="605"/>
	<vehicle id="303" type="typeBus" route="10to1b" depart="609"/>
	<vehicle id="304" type="typeBus" route="19to16" depart="611"/>
	<vehicle id="305" type="typeBus" route="19to17" depart="611"/>
	<vehicle id="306" type="typeBus" route="12to1a" depart="614"/>
	<vehicle id="307" type="typeBus" route="17to19" depart="617"/>
	<vehicle id="308" type="typeBus" route="14to10" depart="618"/>
	<vehicle id="309" type="typeBus" route="11to10" depart="620"/>
	<vehicle id="310" type="typeBus" route="18to14" depart="622"/>
	<vehicle id="311" type="typeBus" route="1ato17" depart="625"/>
	<vehicle id="312" type="typeBus" route="18to1b" depart="626"/>
	<vehicle id="313" type="typeBus" route="17to1b" depart="627"/>
	<vehicle id="314" type="typeBus" route="1bto12" depart="630"/>
	<vehicle id="315" type="typeBus" route="10to13" depart="633"/>
	<vehicle id="316" type="typeBus" route="1bto16" depart="634"/>
	<vehicle id="317" type="typeBus" route="18to14" depart="637"/>
	<vehicle id="318" type="typeBus" route="12to14" depart="638"/>
	<vehicle id="319" type="typeBus" route="16to1b" depart="640"/>
	<vehicle id="320" type="typeBus" route="14to11" depart="641"/>
	<vehicle id="321" type="typeBus" route="14to15" depart="645"/>
	<vehicle id="322" type="typeBus" route="14to19" depart="646"/>
	<vehicle id="323" type="typeBus" route="18to14" depart="647"/>
	<vehicle id="324" type="typeBus" route="15to17" depart="649"/>
	<vehicle id="325" type="typeBus" route="19to1a" depart="652"/>
	<vehicle id="326" type="typeBus" route="11to17" depart="653"/>
	<vehicle id="327" type="typeBus" route="18to11" depart="655"/>
	<vehicle id="328" type="typeBus" route="17to16" depart="657"/>
	<vehicle id="329" type="typeBus" route="18to1b" depart="661"/>
	<vehicle id="330" type="typeBus" route="19to16" depart="662"/>
	<vehicle id="331" type="typeBus" route="1ato13" depart="664"/>
	<vehicle id="332" type="typeBus" route="15to12" depart="667"/>
	<vehicle id="333" type="typeBus" route="14to13" depart="668"/>
	<vehicle id="334" type="typeCar" route="10to1a" depart="670"/>
	<vehicle id="335" type="typeCar" route="1ato13" depart="672"/>
	<vehicle id="336" type="typeBus" route="18to15" depart="675"/>
	<vehicle id="337" type="typeBus" route="16to11" depart="677"/>
	<vehicle id="338" type="typeCar" route="15to17" depart="678"/>
	<vehicle id="339" type="typeBus" route="11to18" depart="680"/>
	<vehicle id="340" type="typeBus" route="18to10" depart="683"/>
	<vehicle id="341" type="typeBus" route="11to15" depart="683"/>
	<vehicle id="342" type="typeBus" route="10to1b" depart="685"/>
	<vehicle id="343" type="typeBus" route="14to17" depart="687"/>
	<vehicle id="344" type="typeBus" route="14to11" depart="690"/>
	<vehicle id="345" type="typeBus" route="18to16" depart="693"/>
	<vehicle id="346" type="typeCar" route="10to11" depart="695"/>
	<vehicle id="347" type="typeBus" route="19to15" depart="695"/>
	<vehicle id="348" type="typeBus" route="19to16" depart="697"/>
	<vehicle id="349" type="typeCar" route="1bto16" depart="700"/>
	<vehicle id="350" type="typeBus" route="15to17" depart="701"/>
	<vehicle id="351" type="typeBus" route="12to15" depart="705"/>
	<vehicle id="352" type="typeBus" route="11to19" depart="707"/>
	<vehicle id="353" type="typeBus" route="1ato17" depart="708"/>
	<vehicle id="354" type="typeBus" route="18to19" depart="710"/>
	<vehicle id="355" type="typeBus" route="10to15" depart="711"/>
	<vehicle id="356" type="typeBus" route="19to1b" depart="713"/>
	<vehicle id="357" type="typeBus" route="10to15" depart="715"/>
	<vehicle id="358" type="typeBus" route="19to18" depart="719"/>
	<vehicle id="359" type="typeBus" route="16to11" depart="721"/>
	<vehicle id="360" type="typeCar" route="1ato13" depart="722"/>
	<vehicle id="361" type="typeBus" route="14to11" depart="724"/>
	<vehicle id="362" type="typeCar" route="10to19" depart="725"/>
	<vehicle id="363" type="typeBus" route="12to14" depart="727"/>
	<vehicle id="364" type="typeBus" route="10to1a" depart="731"/>
	<vehicle id="365" type="typeBus" route="12to1a" depart="732"/>
	<vehicle id="366" type="typeBus" route="19to11" depart="735"/>
	<vehicle id="367" type="typeBus" route="12to16" depart="735"/>
	<vehicle id="368" type="typeCar" route="15to17" depart="737"/>
	<vehicle id="369" type="typeBus" route="19to13" depart="739"/>
	<vehicle id="370" type="typeBus" route="14to19" depart="742"/>
	<vehicle id="371" type="typeBus" route="13to1b" depart="743"/>
	<vehicle id="372" type="typeBus" route="17to13" depart="747"/>
	<vehicle id="373" type="typeBus" route="19to15" depart="747"/>
	<vehicle id="374" type="typeBus" route="19to11" depart="750"/>
	<vehicle id="375" type="typeBus" route="13to19" depart="753"/>
	<vehicle id="376" type="typeBus" route="14to10" depart="753"/>
	<vehicle id="377" type="typeBus" route="1ato11" depart="757"/>
	<vehicle id="378" type="typeBus" route="10to15" depart="758"/>
	<vehicle id="379" type="typeBus" route="12to11" depart="760"/>
	<vehicle id="380" type="typeBus" route="12to1b" depart="761"/>
	<vehicle id="381" type="typeBus" route="10to15" depart="764"/>
	<vehicle id="382" type="typeBus" route="1ato12" depart="766"/>
	<vehicle id="383" type="typeBus" route="11to10" depart="769"/>