<connections>
	<delete from="10to00" to="00to03" fromLane="1" toLane="0"/>
	<delete from="10to00" to="00to03" fromLane="1" toLane="1"/>
	<delete from="01to00" to="00to1b" fromLane="1" toLane="0"/>
	<delete from="01to00" to="00to1b" fromLane="1" toLane="1"/>
	<delete from="03to00" to="00to10" fromLane="1" toLane="0"/>
	<delete from="03to00" to="00to10" fromLane="1" toLane="1"/>
	<delete from="1bto00" to="00to01" fromLane="1" toLane="0"/>
	<delete from="1bto00" to="00to01" fromLane="1" toLane="1"/>
	<delete from="11to01" to="01to04" fromLane="1" toLane="0"/>
	<delete from="11to01" to="01to04" fromLane="1" toLane="1"/>
	<delete from="02to01" to="01to00" fromLane="1" toLane="0"/>
	<delete from="02to01" to="01to00" fromLane="1" toLane="1"/>
	<delete from="04to01" to="01to11" fromLane="1" toLane="0"/>
	<delete from="04to01" to="01to11" fromLane="1" toLane="1"/>
	<delete from="00to01" to="01to02" fromLane="1" toLane="0"/>
	<delete from="00to01" to="01to02" fromLane="1" toLane="1"/>
	<delete from="12to02" to="02to05" fromLane="1" toLane="0"/>
	<delete from="12to02" to="02to05" fromLane="1" toLane="1"/>
	<delete from="13to02" to="02to01" fromLane="1" toLane="0"/>
	<delete from="13to02" to="02to01" fromLane="1" toLane="1"/>
	<delete from="05to02" to="02to12" fromLane="1" toLane="0"/>
	<delete from="05to02" to="02to12" fromLane="1" toLane="1"/>
	<delete from="01to02" to="02to13" fromLane="1" toLane="0"/>
	<delete from="01to02" to="02to13" fromLane="1" toLane="1"/>
	<delete from="00to03" to="03to06" fromLane="1" toLane="0"/>
	<delete from="00to03" to="03to06" fromLane="1" toLane="1"/>
	<delete from="04to03" to="03to1a" fromLane="1" toLane="0"/>
	<delete from="04to03" to="03to1a" fromLane="1" toLane="1"/>
	<delete from="06to03" to="03to00" fromLane="1" toLane="0"/>
	<delete from="06to03" to="03to00" fromLane="1" toLane="1"/>
	<delete from="1ato03" to="03to04" fromLane="1" toLane="0"/>
	<delete from="1ato03" to="03to04" fromLane="1" toLane="1"/>
	<delete from="01to04" to="04to07" fromLane="1" toLane="0"/>
	<delete from="01to04" to="04to07" fromLane="1" toLane="1"/>
	<delete from="05to04" to="04to03" fromLane="1" toLane="0"/>
	<delete from="05to04" to="04to03" fromLane="1" toLane="1"/>
	<delete from="07to04" to="04to01" fromLane="1" toLane="0"/>
	<delete from="07to04" to="04to01" fromLane="1" toLane="1"/>
	<delete from="03to04" to="04to05" fromLane="1" toLane="0"/>
	<delete from="03to04" to="04to05" fromLane="1" toLane="1"/>
	<delete from="02to05" to="05to08" fromLane="1" toLane="0"/>
	<delete from="02to05" to="05to08" fromLane="1" toLane="1"/>
	<delete from="14to05" to="05to04" fromLane="1" toLane="0"/>
	<delete from="14to05" to="05to04" fromLane="1" toLane="1"/>
	<delete from="08to05" to="05to02" fromLane="1" toLane="0"/>
	<delete from="08to05" to="05to02" fromLane="1" toLane="1"/>
	<delete from="04to05" to="05to14" fromLane="1" toLane="0"/>
	<delete from="04to05" to="05to14" fromLane="1" toLane="1"/>
	<delete from="03to06" to="06to18" fromLane="1" toLane="0"/>
	<delete from="03to06" to="06to18" fromLane="1" toLane="1"/>
	<delete from="07to06" to="06to19" fromLane="1" toLane="0"/>
	<delete from="07to06" to="06to19" fromLane="1" toLane="1"/>
	<delete from="18to06" to="06to03" fromLane="1" toLane="0"/>
	<delete from="18to06" to="06to03" fromLane="1" toLane="1"/>
	<delete from="19to06" to="06to07" fromLane="1" toLane="0"/>
	<delete from="19to06" to="06to07" fromLane="1" toLane="1"/>
	<delete from="04to07" to="07to17" fromLane="1" toLane="0"/>
	<delete from="04to07" to="07to17" fromLane="1" toLane="1"/>
	<delete from="08to07" to="07to06" fromLane="1" toLane="0"/>
	<delete from="08to07" to="07to06" fromLane="1" toLane="1"/>
	<delete from="17to07" to="07to04" fromLane="1" toLane="0"/>
	<delete from="17to07" to="07to04" fromLane="1" toLane="1"/>
	<delete from="06to07" to="07to08" fromLane="1" toLane="0"/>
	<delete from="06to07" to="07to08" fromLane="1" toLane="1"/>
	<delete from="05to08" to="08to16" fromLane="1" toLane="0"/>
	<delete from="05to08" to="08to16" fromLane="1" toLane="1"/>
	<delete from="15to08" to="08to07" fromLane="1" toLane="0"/>
	<delete from="15to08" to="08to07" fromLane="1" toLane="1"/>
	<delete from="16to08" to="08to05" fromLane="1" toLane="0"/>
	<delete from="16to08" to="08to05" fromLane="1" toLane="1"/>
	<delete from="07to08" to="08to15" fromLane="1" toLane="0"/>
	<delete from="07to08" to="08to15" fromLane="1" toLane="1"/>
</connections>